Version 4
SHEET 1 880 1140
WIRE 672 128 656 128
WIRE 784 128 752 128
WIRE 784 144 784 128
WIRE 656 192 656 128
WIRE 336 208 112 208
WIRE 400 208 336 208
WIRE 496 208 480 208
WIRE 624 208 496 208
WIRE 496 224 496 208
WIRE 784 224 688 224
WIRE 256 240 192 240
WIRE 624 240 592 240
WIRE 256 256 256 240
WIRE 656 288 656 256
WIRE 496 320 496 304
WIRE 256 352 256 336
WIRE 192 384 192 240
WIRE 656 384 656 368
WIRE 112 400 112 208
WIRE 160 400 112 400
WIRE 336 416 336 208
WIRE 336 416 224 416
WIRE -80 432 -192 432
WIRE 16 432 0 432
WIRE 160 432 16 432
WIRE 16 448 16 432
WIRE 192 512 192 448
WIRE 224 512 192 512
WIRE 320 512 304 512
WIRE 320 528 320 512
WIRE 16 544 16 528
WIRE -192 640 -192 432
WIRE 336 688 48 688
WIRE 400 688 336 688
WIRE 592 688 592 240
WIRE 592 688 480 688
WIRE 624 688 592 688
WIRE 784 688 784 224
WIRE 784 688 704 688
WIRE 96 752 80 752
WIRE 192 752 176 752
WIRE 80 768 80 752
WIRE 192 864 192 752
WIRE 48 880 48 688
WIRE 160 880 48 880
WIRE 336 896 336 688
WIRE 336 896 224 896
WIRE -192 912 -192 720
WIRE -80 912 -192 912
WIRE 16 912 0 912
WIRE 160 912 16 912
WIRE 16 928 16 912
WIRE 192 960 192 928
WIRE 224 960 192 960
WIRE 320 960 304 960
WIRE 320 976 320 960
WIRE -192 992 -192 912
WIRE 16 1024 16 1008
WIRE -192 1120 -192 1072
FLAG 256 352 0
FLAG 496 320 0
FLAG 16 544 0
FLAG 16 1024 0
FLAG 80 768 0
FLAG 320 976 0
FLAG 320 528 0
FLAG 784 144 0
FLAG 656 384 0
FLAG -192 1120 0
SYMBOL Opamps\\UniversalOpAmp 192 416 R0
SYMATTR InstName U1
SYMBOL voltage 256 240 R0
SYMATTR InstName V1
SYMATTR Value 4.5V
SYMBOL Opamps\\UniversalOpAmp 656 224 M180
SYMATTR InstName U2
SYMBOL Opamps\\UniversalOpAmp 192 896 R0
SYMATTR InstName U3
SYMBOL voltage 192 752 R90
WINDOW 0 -32 56 VBottom 2
WINDOW 3 32 56 VTop 2
SYMATTR InstName V3
SYMATTR Value 4.5V
SYMBOL res 720 672 R90
WINDOW 0 0 56 VBottom 2
WINDOW 3 32 56 VTop 2
SYMATTR InstName R1
SYMATTR Value 10k
SYMBOL res 496 672 R90
WINDOW 0 0 56 VBottom 2
WINDOW 3 32 56 VTop 2
SYMATTR InstName R2
SYMATTR Value 10k
SYMBOL res 480 208 R0
SYMATTR InstName R3
SYMATTR Value 10k
SYMBOL res 496 192 R90
WINDOW 0 0 56 VBottom 2
WINDOW 3 32 56 VTop 2
SYMATTR InstName R4
SYMATTR Value 10k
SYMBOL voltage 656 272 R0
WINDOW 0 -41 13 Left 2
WINDOW 3 6 96 Left 2
SYMATTR InstName V2
SYMATTR Value 4.5V
SYMBOL res 0 432 R0
SYMATTR InstName R5
SYMATTR Value 100k
SYMBOL res 0 912 R0
SYMATTR InstName R6
SYMATTR Value 100k
SYMBOL res 16 896 R90
WINDOW 0 0 56 VBottom 2
WINDOW 3 32 56 VTop 2
SYMATTR InstName R7
SYMATTR Value 900k
SYMBOL res 16 416 R90
WINDOW 0 0 56 VBottom 2
WINDOW 3 32 56 VTop 2
SYMATTR InstName R8
SYMATTR Value 900k
SYMBOL voltage -192 624 R0
WINDOW 123 0 0 Left 0
WINDOW 39 0 0 Left 0
SYMATTR InstName V4
SYMATTR Value 5
SYMBOL voltage 320 960 R90
WINDOW 0 -32 56 VBottom 2
WINDOW 3 32 56 VTop 2
SYMATTR InstName V5
SYMATTR Value 4.5V
SYMBOL voltage 320 512 R90
WINDOW 0 -32 56 VBottom 2
WINDOW 3 32 56 VTop 2
SYMATTR InstName V6
SYMATTR Value 4.5V
SYMBOL voltage 768 128 R90
WINDOW 0 -32 56 VBottom 2
WINDOW 3 32 56 VTop 2
SYMATTR InstName V7
SYMATTR Value 4.5V
SYMBOL voltage -192 976 R0
WINDOW 123 0 0 Left 0
WINDOW 39 0 0 Left 0
SYMATTR InstName V8
SYMATTR Value 5
TEXT -144 280 Left 2 !.tran 10ms
